Title: Mathcore
Author: By Neville Fogarty & Erik Agard
Copyright: Universal UClick
Date: 2023-10-16


##DES#LOAF#RAMP
#PILE#ECHO#ALOE
BIGMAMATHORNTON
LED#WIN##TALONS
OREGANO#UPTO###
GREET#NINA#WONT
SEPTET#MITT#BAR
###AROMATHERAPY
FLIT#YOGA#DIMES
RECAP#NERF#CAST
ASININE#DESK###
USC#ROT##MISHAP
DELTASIGMATHETA
#NEAT#ZEAL#ARMS
##SEE#ELSE#WEST


A1. ___ Moines, Iowa ~ DES
A4. Bread baker's creation ~ LOAF
A8. Wheelchair access incline ~ RAMP
A12. Heap ~ PILE
A13. Reverberating sound ~ ECHO
A14. ___ vera gel ~ ALOE
A15. Original singer of "Hound Dog" ~ BIGMAMATHORNTON
A18. Was ahead of the other team ~ LED
A19. End up ahead of the other team ~ WIN
A20. Bird of prey's claws ~ TALONS
A21. Pizza herb ~ OREGANO
A23. "If it were ___ me, then . . ." ~ UPTO
A24. Say hi to ~ GREET
A25. "I Put a Spell on You: The Autobiography of ___ Simone" ~ NINA
A27. Isn't gonna ~ WONT
A31. Group of seven ~ SEPTET
A33. Glove for catching or cooking ~ MITT
A35. ___ none ~ BAR
A36. Form of alternative medicine involving essential oils ~ AROMATHERAPY
A39. Move like a moth ~ FLIT
A42. Spiritual practice from India ~ YOGA
A43. Coins with FDR on them ~ DIMES
A44. Sum up ~ RECAP
A46. Brand of squishy weaponry ~ NERF
A48. Group of actors ~ CAST
A49. Foolish ~ ASININE
A51. Part of a clump on "The Office" ~ DESK
A53. Rival of UCLA and Notre Dame ~ USC
A54. Go bad ~ ROT
A55. Accident ~ MISHAP
A59. Devastating Divas' sorority ~ DELTASIGMATHETA
A63. Not messy ~ NEAT
A64. Great enthusiasm (or a group of zebras) ~ ZEAL
A65. Biceps' locations ~ ARMS
A66. Envision ~ SEE
A67. "Is there anything ___ I can help you with?" ~ ELSE
A68. ___ Virginia ~ WEST

D1. Search for strength within ~ DIGDEEP
D2. Central Park tree ~ ELM
D3. Target of desalination ~ SEAWATER
D4. Use for support ~ LEANON
D5. Indigenous Peoples' Day mo. ~ OCT
D6. "That feels sooo gooood" ~ AHH
D7. Where to walk in the country ~ FOOTPATH
D8. Needed refilling ~ RANLOW
D9. SSA choral arrangement part ~ ALTO
D10. Tide maker ~ MOON
D11. Calligrapher's collection ~ PENS
D12. Capital of South Dakota ~ PIERRE
D15. Web journals ~ BLOGS
D16. Opposite of max. ~ MIN
D17. Long-tailed rodent ~ RAT
D22. Catch some rays ~ GETATAN
D23. Singletlike garment ~ UNITARD
D26. JPEG file ~ IMAGE
D28. "Becoming" author Michelle ~ OBAMA
D29. Backs of necks ~ NAPES
D30. Lovers' rendezvous ~ TRYST
D32. Doll or top, for example ~ TOY
D34. "___ Lasso" ~ TED
D37. Make revenue off of ~ MONETIZE
D38. Cart from the Japanese for "human-powered vehicle" ~ RICKSHAW
D39. Crime of deception ~ FRAUD
D40. Reduce ~ LESSEN
D41. Frozen danglers ~ ICICLES
D45. Captain Hook, for one ~ PIRATE
D47. ___-matching player (member of a mixed ultimate team) ~ FEMALE
D50. Words revoking consent ~ NOS
D52. Use a chair ~ SIT
D56. In this spot ~ HERE
D57. Cash dispensers ~ ATMS
D58. Time before now ~ PAST
D60. ___ kwon do ~ TAE
D61. Goo for a 'do ~ GEL
D62. Living ___ (Taco Bell fan site) ~ MAS

