Title: LA Times, Mon, Jul 2, 2012
Author: Jeff Chen / Ed. Rich Norris
Copyright: © 2012 Tribune Media Services, Inc.
Date: 2012-07-02


ASPS#RAGAS#SCAT
CHEW#ERODE#TOSS
TIDE#DEBRA#OWIE
#VIRGINIAWOOLF#
###VERA#WANG###
GISELE###TEEHEE
URN#SCHEMES#INS
NEAP#TOWER#BTUS
INKUP#VWS#OUTRE
TEEPEE###PUSHES
##VANNA#WHITE##
ALE##OTERI##WAS
VANESSAWILLIAMS
EVOKE#ROT#ALLIN
RAMEN#IKE#WELDS


A1. Nile slitherers ~ ASPS
A5. Melodies featuring sitars ~ RAGAS
A10. "Git!" ~ SCAT
A14. Enjoy some gum ~ CHEW
A15. Disappear slowly but surely ~ ERODE
A16. Soft throw ~ TOSS
A17. Ocean motion ~ TIDE
A18. Winger of "Black Widow" ~ DEBRA
A19. Bumped knee, to a tot ~ OWIE
A20. Venerable woman of literature ~ VIRGINIAWOOLF
A23. With 24-Across, voguish woman of bridal fashion ~ VERA
A24. See 23-Across ~ WANG
A25. Supermodel Bündchen ~ GISELE
A28. Flirty giggle ~ TEEHEE
A32. Coffee vessel ~ URN
A33. Hatches evil plans ~ SCHEMES
A37. Networking connections ~ INS
A38. Minimum-range 17-Across ~ NEAP
A40. Eiffel creation ~ TOWER
A41. A/C units ~ BTUS
A42. Finalize, as a tattoo ~ INKUP
A44. Jettas and Beetles, or an apt title for this puzzle ~ VWS
A45. More than eccentric ~ OUTRE
A46. Tribal tent ~ TEEPEE
A48. Gets unruly in a crowd, say ~ PUSHES
A49. With 51-Across, vivacious woman of game show fame ~ VANNA
A51. See 49-Across ~ WHITE
A52. Bar order ~ ALE
A54. "SNL" alum Cheri ~ OTERI
A56. Once existed ~ WAS
A59. Voluptuous woman of stage and screen ~ VANESSAWILLIAMS
A64. Call to mind ~ EVOKE
A65. Problem in old wood ~ ROT
A66. Do-or-die poker bet ~ ALLIN
A67. College dinner staple ~ RAMEN
A68. '50s presidential nickname ~ IKE
A69. Joins with a torch ~ WELDS

D1. Perform on stage ~ ACT
D2. Hood's blade ~ SHIV
D3. Feet pampering, briefly ~ PEDI
D4. Sudden turn ~ SWERVE
D5. Forward, as to an updated website ~ REDIRECT
D6. Gladiator's realm ~ ARENA
D7. Asian desert ~ GOBI
D8. Play to __: tie ~ ADRAW
D9. Ocean makeup ~ SEAWATER
D10. Larry, Curly or Moe ~ STOOGE
D11. Monastic hood ~ COWL
D12. "Ain't gonna happen!" ~ ASIF
D13. "The Waste Land" poet's initials ~ TSE
D21. Hair tamers ~ GELS
D22. Bills not found in ATMs ~ ONES
D25. Put the pedal to the metal ~ GUNIT
D26. "Fame" star Cara ~ IRENE
D27. Cobra's weapon ~ SNAKEVENOM
D29. Reach one's endurance limit, in a marathon ~ HITTHEWALL
D30. Accustom (to) ~ ENURE
D31. Slalom curves ~ ESSES
D34. Carpool lane letters ~ HOV
D35. "Yuck!" ~ EWW
D36. Enero o febrero, por ejemplo ~ MES
D39. Stage in a bug's life ~ PUPA
D41. Head-and-shoulders sculpture ~ BUST
D43. Ink-filled tool ~ PEN
D45. Yvette's yes ~ OUI
D47. Grandson of Adam ~ ENOS
D48. Rizzuto of the Yankees ~ PHIL
D50. Video game pioneer ~ ATARI
D51. Drop a line ~ WRITE
D52. Affirm as true ~ AVER
D53. Molten rock ~ LAVA
D55. "Star Wars" furball ~ EWOK
D57. Within ~ AMID
D58. IDs with two hyphens ~ SSNS
D60. __ out: barely manage ~ EKE
D61. Six-yr.-term holder ~ SEN
D62. Barrister's field ~ LAW
D63. Suffix with project ~ ILE

