Title: New York Times, Thursday, December 19, 2013
Author: George Barany and Michael Shteyman
Editor: Will Shortz
Date: 2013-12-19
Rebus: 1=OIL,2=WATER


CAT#ROMANCE#BCD
ARR#EXEDOUT#ALE
PTA#COLORTV#NEE
TINF1#####1LAMP
ACCOSTS#TRAINER
ILES#ULTRA#MANE
NESS#BR1ER#ESTD
LIKEWATERANDOIL
AWE#ATATIME#URI
SHY#HOT2BAG#TAB
TEA#ODE#SIR#LTR
PERIOD###TOLIFE
ALEC#LAYER#ONIT
SINE#ELATE#WENT
SEA2#RAZED#2SKI


A1. Cool dude ~ CAT
A4. Woo ~ ROMANCE
A11. A train? ~ BCD
A14. Times column: Abbr. ~ ARR
A15. Canceled ~ EXEDOUT
A16. Falstaff's quaff ~ ALE
A17. Org. that usually meets in the evening ~ PTA
A18. Living room fixture since the '50s ~ COLORTV
A19. Born ~ NEE
A20. Food wrap ~ TINFOIL
A22. Light for Aladdin ~ OILLAMP
A24. Asks in public, say ~ ACCOSTS
A27. Flight simulator ~ TRAINER
A29. Makeup of les Caraïbes ~ ILES
A30. Extreme ~ ULTRA
A32. A pride of lions? ~ MANE
A33. Great finish? ~ NESS
A34. Chicken for dinner ~ BROILER
A35. Founded: Abbr. ~ ESTD
A36. Incompatible ~ LIKEWATERANDOIL
A44. Cow, perhaps ~ AWE
A46. Together ~ ATATIME
A49. Sch. with a campus in Providence ~ URI
A51. Shrinking ~ SHY
A52. Soother of an aching joint ~ HOTWATERBAG
A53. Computer key ~ TAB
A54. It may come in loose-leaf form ~ TEA
A55. Poetic paean ~ ODE
A56. Alfred Hitchcock title ~ SIR
A57. Env. contents ~ LTR
A58. Quarter or half ~ PERIOD
A60. "L'chaim," literally ~ TOLIFE
A62. 1960s British P.M. ___ Douglas-Home ~ ALEC
A63. Either the top or bottom half of this puzzle, figuratively speaking ~ LAYER
A67. Taking care of business ~ ONIT
A68. Kind of wave ~ SINE
A69. Send ~ ELATE
A70. Sold (for) ~ WENT
A71. Brine ~ SEAWATER
A72. Bulldozed ~ RAZED
A73. Wakeboard relative ~ WATERSKI

D1. ___ America ~ CAPTAIN
D2. It gives Congress the power to declare war ~ ARTICLEI
D3. Séance phenomena ~ TRANCES
D4. Jumps back ~ RECOILS
D5. Tic-tac-toe loser ~ OXO
D6. Blanc who voiced Bugs Bunny ~ MEL
D7. Foofaraw ~ ADO
D8. King Harald's land: Abbr. ~ NOR
D9. Director's cry ~ CUT
D10. Cry at an unveiling ~ ETVOILA
D11. Fruit or nuts ~ BANANAS
D12. Fourth pope ~ CLEMENTI
D13. Crimson ~ DEEPRED
D21. "All That Jazz" director ~ FOSSE
D23. Treated, in a way, as a lawn ~ LIMED
D25. Big band member ~ TUBA
D26. Camera type, briefly ~ SLR
D27. Numero di R's in "arrivederci" ~ TRE
D28. ___ avis ~ RARA
D31. Lightly scented perfume ~ TOILETWATER
D36. Final maneuver ~ LASTPASS
D37. Seattle Center Coliseum, since 1995 ~ KEYARENA
D38. Rebel yell ~ WAHOO
D39. London gallery ~ TATE
D40. Razzes ~ RIBS
D41. Rio ___ (Amazon feeder) ~ NEGRO
D42. Silhouettes ~ OUTLINES
D43. Opera texts ~ LIBRETTI
D45. Cyclist's stunt ~ WHEELIE
D47. Wee one ~ TODDLER
D48. Two- or four-seater, maybe ~ MAITRED
D50. Snitch ~ RATFINK
D59. Restaurant freebie ~ ICEWATER
D61. Ideal condition in which to ford a stream ~ LOWWATER
D64. Yellowhammer State: Abbr. ~ ALA
D65. Longtime Red Sox nickname ~ YAZ
D66. Somme summer ~ ETE

