Title: New York Times, Saturday, February 26, 2022
Author: Ori Brian
Editor: Will Shortz
Copyright: © 2022, The New York Times
Date: 2022-02-26


EGRET#UBER#BCCS
CLARA#SLAY#LEAH
OUTERSPACE#ELLA
LET#POACH#SALTY
ATAD#TSK#BATMEN
BONOBOS#SUB#ACE
###GOSPELTRUTH#
##SEXPOSITIVE##
#DESSERTMENU###
KIA#TAT#TRALALA
ADWEEK#DOC#ALAN
STAMP#RUNUP#LUG
BITE#EYEOPENERS
AMEN#VAIN#SAGET
HERD#ANNE#TEENY


A1. Symbol of the National Audubon Society ~ EGRET
A6. Auto download? ~ UBER
A10. Includes surreptitiously, in a way ~ BCCS
A14. Pianist/composer Schumann ~ CLARA
A15. Do amazingly, in slang ~ SLAY
A16. Biblical mother of Levi and Judah ~ LEAH
A17. Sun spot? ~ OUTERSPACE
A19. Spanish pronoun ~ ELLA
A20. Rent out ~ LET
A21. Eggs Benedict recipe word ~ POACH
A22. Annoyed, in slang ~ SALTY
A23. Not much ~ ATAD
A25. "Naughty you!" ~ TSK
A26. Christian Bale and Val Kilmer, for two ~ BATMEN
A27. Close relatives of ours ~ BONOBOS
A29. Nonstarter ~ SUB
A30. Wunderkind ~ ACE
A31. Irrefutable statement ~ GOSPELTRUTH
A34. Openly discussing one's kinks, say ~ SEXPOSITIVE
A35. End of a waiting list? ~ DESSERTMENU
A36. Auto import ~ KIA
A37. Use a shuttle, say ~ TAT
A38. Nonsensical song syllables ~ TRALALA
A42. Magazine that's marketed to marketers ~ ADWEEK
A44. Pro with stereotypically messy handwriting ~ DOC
A45. Philosopher Watts ~ ALAN
A46. OK, in a way ~ STAMP
A47. Accumulate ~ RUNUP
A49. Big oaf ~ LUG
A50. Fall for it ~ BITE
A51. Revelations ~ EYEOPENERS
A53. "Couldn't agree more!" ~ AMEN
A54. Peacockish ~ VAIN
A55. Late comedian Bob ~ SAGET
A56. Driven group ~ HERD
A57. Celebrity chef Burrell ~ ANNE
A58. Microscopic ~ TEENY

D1. Green research site ~ ECOLAB
D2. Stick on ~ GLUETO
D3. Boho-chic furniture material ~ RATTAN
D4. "... ___ I again behold my Romeo!": Juliet ~ ERE
D5. Cover up in a shower ~ TARP
D6. Book with an eagle on its cover ~ USPASSPORT
D7. Word with tie or belt ~ BLACK
D8. Pricing word ~ EACH
D9. City on the New York/Connecticut border ~ RYE
D10. Cry like a kid ~ BLEAT
D11. Person you're in with ~ CELLMATE
D12. West Coast school where Einstein once taught ~ CALTECH
D13. N.F.L. kicker Graham who played for 14 teams ~ SHAYNE
D18. As you might say ~ SOTOSPEAK
D22. TV witch ~ SABRINA
D24. Chief magistrates in Italian history ~ DOGES
D26. Cutesy term of affection ~ BUTTERCUP
D28. Part of the foxtrot ~ BOXSTEP
D29. Long ~ SLIMTONONE
D32. Winter D.C. clock setting ~ EST
D33. Part of the palate ~ UVULA
D34. It makes waves ~ SEAWATER
D35. Was in prison ~ DIDTIME
D36. Moroccan quarter ~ KASBAH
D39. Charge ~ ALLEGE
D40. Name that's an anagram of UNREAL ~ LAUREN
D41. On edge ~ ANGSTY
D43. Fix, as text ~ EMEND
D44. Scheduled to land, say ~ DUEIN
D47. Running mate of 2012 ~ RYAN
D48. Noodge ~ PEST
D51. Actress Noblezada of Broadway's "Hadestown" ~ EVA
D52. When doubled, a 2010s dance craze ~ NAE

