Title: 2016
Author: By James Q. Ellis
Copyright: © Universal Daily Crossword
Date: 2015-12-31


MERE#OPART#TBSP
AREA#BRIAR#RATA
COST#RIDGE#OBIT
ADO#TIMESSQUARE
WELSHES##PUT###
##UPON#LIAISONS
ATTAR#MIDST#FAA
CHIN#SOLES#EFTS
TOO#SELLS#TRIOS
SUNSHADE#CROC##
###TOW##ERASERS
NEWYEARSDAY#BIT
ATOM#TOAST#SAFE
SARI#ESTEE#ISLE
ALEE#REELS#SHED


A1. A ___ technicality ~ MERE
A5. Eye-fooling genre ~ OPART
A10. 1/2 fluid oz. ~ TBSP
A14. Wall-to-wall calculation ~ AREA
A15. Bit of a sticky wicket? ~ BRIAR
A16. Pro ___ (in proportion) ~ RATA
A17. Purchase amount ~ COST
A18. Mountain feature ~ RIDGE
A19. Life preserver? ~ OBIT
A20. Fuss in a Shakespeare title ~ ADO
A21. New Year's Eve spot, for many ~ TIMESSQUARE
A23. Reneges ~ WELSHES
A25. "To ___ it mildly . . ." ~ PUT
A26. Chance ___ (happen to meet) ~ UPON
A27. Illicit affairs ~ LIAISONS
A32. Oil from flowers ~ ATTAR
A34. Central spot ~ MIDST
A35. Pilot licensing org. ~ FAA
A36. Dimple site ~ CHIN
A37. Arch supports? ~ SOLES
A38. Baby salamanders ~ EFTS
A39. Over the top (with "much") ~ TOO
A40. Moves real estate ~ SELLS
A41. Groups of three ~ TRIOS
A42. Parasol ~ SUNSHADE
A44. Reptile without a tail? ~ CROC
A45. Stuck vehicle's need ~ TOW
A46. Mistake removers ~ ERASERS
A49. When many celebrations start to wind down ~ NEWYEARSDAY
A54. Power-drill accessory ~ BIT
A55. Cyclotron particle ~ ATOM
A56. Part of a wedding reception ~ TOAST
A57. Locked valuables box ~ SAFE
A58. Delhi dress ~ SARI
A59. Cosmetics maven Lauder ~ ESTEE
A60. Ferry terminus, sometimes ~ ISLE
A61. "Hard ___!" (ship command) ~ ALEE
A62. Movie house supplies ~ REELS
A63. Small farm building ~ SHED

D1. Brilliantly colored parrot ~ MACAW
D2. Lose ground ~ ERODE
D3. It starts on 49-Across ~ RESOLUTION
D4. "Dig in!" ~ EAT
D5. Late-night host Conan ~ OBRIEN
D6. Makes dainty in appearance ~ PRIMS
D7. Congressional helper ~ AIDE
D8. Scott Joplin's legacy ~ RAGS
D9. Encroach ~ TRESPASS
D10. Fish in streams ~ TROUTS
D11. A famous Ali ~ BABA
D12. Follow a recipe direction ~ STIR
D13. Spread for a nice spread ~ PATE
D21. God with a hammer ~ THOR
D22. Throw in the towel ~ QUIT
D24. Nine inches ~ SPAN
D27. Charles de Gaulle's birthplace ~ LILLE
D28. Caesar's worst day ~ IDES
D29. Dec. 31 event, for some ~ OFFICEBASH
D30. '49 defense alliance ~ NATO
D31. Vocal impertinence ~ SASS
D32. Dramatic divisions ~ ACTS
D33. Ten Commandments pronoun ~ THOU
D34. Aspic need ~ MOLD
D37. Ocean fill ~ SEAWATER
D38. Winged god of love ~ EROS
D40. There may be a spat about it ~ SHOE
D41. Waiter's weight ~ TRAY
D43. Block ~ STYMIE
D44. Peach containers ~ CRATES
D46. Big name in car flops ~ EDSEL
D47. Fudd's weapon ~ RIFLE
D48. Mount of high spirits ~ STEED
D49. "Apollo 13" grp. ~ NASA
D50. And others, for short ~ ETAL
D51. Clad oneself in ~ WORE
D52. Aphid victim ~ ROSE
D53. Fill to the gills ~ SATE
D57. Close relative, for many ~ SIS

