Title: New York Times, Thursday, November 10, 2005
Author: Lee Glickstein and Craig Kasper
Editor: Will Shortz
Date: 2005-11-10
Rebus: 1=WATER


FLOOD1GATE#SEA1
IRANI#MOOR#CLEW
ROSES#ANNEMEARA
ENTRANCES#ANNOY
1##ERA###FYI###
WATERWATER#CHEW
OCALA#BASE#SASH
RUM#YACHTED#SKI
KRIS#STOA#OCTET
SALA#EVERYWHERE
###MUS###ANE##1
HOMER#PACHELBEL
ONIONROLL#ASAMI
TELL#ARGO#SERIN
1BED#HEAD1TABLE


A1. It may wash out bridges and embankments (as in this puzzle) + Onetime White House scandal ~ FLOODWATERGATE
A10. Salt source ~ SEAWATER
A14. Afghan's neighbor ~ IRANI
A15. Secure ~ MOOR
A16. Scotland Yard discovery ~ CLEW
A17. Honey bunch? ~ ROSES
A18. Actress with an uncredited part in "Zoolander" ~ ANNEMEARA
A20. Bedazzles ~ ENTRANCES
A22. Get to, in a way ~ ANNOY
A23. Common ____ ~ ERA
A24. In case this is of interest... ~ FYI
A25. With 49-Across, famous line from "The Rime of the Ancient Mariner" ~ WATERWATER
A31. Not just swallow ~ CHEW
A35. City NW of Orlando ~ OCALA
A36. Depraved ~ BASE
A37. Item that may be "Miss" printed? ~ SASH
A38. Ingredient in a Caribbean cocktail ~ RUM
A39. Took a pleasure excursion ~ YACHTED
A42. Visit Sundance, maybe ~ SKI
A43. One of Charlie's Angels ~ KRIS
A45. Covered walk ~ STOA
A46. Large vocal group ~ OCTET
A48. Cuarto de baño, e.g. ~ SALA
A49. See 25-Across ~ EVERYWHERE
A51. Field of note?: Abbr. ~ MUS
A53. The difference between regular mail and e-mail? ~ ANE
A54. Batter's hope ~ HOMER
A57. Canon composer ~ PACHELBEL
A62. Bialy, e.g. ~ ONIONROLL
A64. "Me, too" ~ ASAMI
A65. Distinguish ~ TELL
A66. Craft that pulled over for Sirens ~ ARGO
A67. Old World relative of a canary ~ SERIN
A68. It's springless ~ WATERBED
A69. Source of a stream + Hydrogeologist's concern ~ HEADWATERTABLE

D1. Hooch + Tears, metaphorically ~ FIREWATERWORKS
D2. Hubbard of Scientology ~ LRON
D3. Kiln ~ OAST
D4. Like a short film ~ ONEREEL
D5. Chaos ~ DISARRAY
D6. Big inits. in car financing ~ GMAC
D7. Top-of-the-line ~ AONE
D8. A gazillion ~ TONS
D9. Before, in poetry ~ ERE
D10. Panoramic photos, say ~ SCENICS
D11. Pizazz ~ ELAN
D12. Rocket scientist's prefix ~ AERO
D13. Canal, e.g. ~ WATERWAY
D19. "____ I?" ~ MAY
D21. Hillbilly's negative ~ NAW
D24. Sovereign ~ FREE
D26. TSX maker ~ ACURA
D27. Sri Lankan tongue ~ TAMIL
D28. "Boston Legal" broadcaster ~ ABCTV
D29. Lake divided by a state line ~ TAHOE
D30. Spanish 101 verb ~ ESTAR
D32. Rush ~ HASTE
D33. Glacial deposit ~ ESKER
D34. Onetime White House scandal + Main ~ WHITEWATERLINE
D40. "___ Death" ("Peer Gynt" piece) ~ ASES
D41. Maine ~ DOWNEAST
D44. When repeated, a response to "What's new?" ~ SAMEOLD
D47. A Clinton ~ CHELSEA
D50. Derisive cry ~ YAH
D52. Egyptian tomb item ~ URN
D54. Big trouble ~ HOTWATER
D55. Apartment next to a super, maybe ~ ONEB
D56. Distance between some posts ~ MILE
D57. Look (over) ~ PORE
D58. Tiny ponddweller ~ ALGA
D59. Knucklehead ~ CLOD
D60. Caustic comment ~ BARB
D61. Runner Zátopek ~ EMIL
D63. Big cheer ~ RAH

