Title: New York Times, Monday, November 7, 2005
Author: Jay Livingston
Editor: Will Shortz
Date: 2005-11-07


SPAT#SAIL#MIRED
IOTA#EBRO#YOURE
NUTCRACKERSUITE
ANYHOW#SWAT#NED
IDS#WAC#SPIT###
###ASTRO#SQUATS
AMAT#EELS#URIAH
BOLTFROMTHEBLUE
RATIO#NORA#ASTA
ATOLLS#SATIN###
###ALAS#YRS#ACC
ASA#OATS#ANIMAL
SCREWBALLCOMEDY
PANAM#ROOK#ABED
SNORE#EGOS#MATE


A1. Tiff ~ SPAT
A5. Go out on the ocean ~ SAIL
A9. Bogged down ~ MIRED
A14. Letter before kappa ~ IOTA
A15. Longest river of Spain ~ EBRO
A16. "___ fired" (Trump catchphrase) ~ YOURE
A17. Classic holiday entertainment ~ NUTCRACKERSUITE
A20. In whatever way ~ ANYHOW
A21. Swing that rips the leather off the ball ~ SWAT
A22. "Waking ___ Devine" (1998 film) ~ NED
A23. Co. photo badges, e.g. ~ IDS
A24. W.W. II female ~ WAC
A26. Expectorate ~ SPIT
A28. Houston major-leaguer ~ ASTRO
A30. Crouches ~ SQUATS
A34. Amo, amas, ___ … ~ AMAT
A37. Morays ~ EELS
A39. Dickens's ___ Heep ~ URIAH
A40. Shock ~ BOLTFROMTHEBLUE
A43. Three to one, e.g. ~ RATIO
A44. Nick and ___ Charles of "The Thin Man" ~ NORA
A45. 44-Across's dog ~ ASTA
A46. Lagoons' surroundings ~ ATOLLS
A48. Sleek fabric ~ SATIN
A50. "Too bad!" ~ ALAS
A52. Mos. and mos. ~ YRS
A53. Clemson competes in it: Abbr. ~ ACC
A56. Fit ___ fiddle ~ ASA
A59. Horse feed ~ OATS
A61. 20 Questions category ~ ANIMAL
A63. "The Thin Man," for one ~ SCREWBALLCOMEDY
A66. Bygone airline ~ PANAM
A67. Corner chesspiece ~ ROOK
A68. Sacked out ~ ABED
A69. Sound made while sacked out ~ SNORE
A70. I's ~ EGOS
A71. Chess ending ~ MATE

D1. Biblical mount ~ SINAI
D2. Hit with a hammer ~ POUND
D3. Lawyers: Abbr. ~ ATTYS
D4. Dashboard dial, for short ~ TACH
D5. Brine ~ SEAWATER
D6. Network of "Lost" ~ ABC
D7. Nettles ~ IRKS
D8. Many movie houses ~ LOEWS
D9. Magical aura ~ MYSTIQUE
D10. Letters of debt ~ IOU
D11. Undo ~ RUIN
D12. Art Deco master ~ ERTE
D13. Monopoly card ~ DEED
D18. Has the oars ~ ROWS
D19. Emulates Eminem ~ RAPS
D25. King of Thebes, in myth ~ CREON
D27. Headdress that's wound ~ TURBAN
D28. Head of the Huns ~ ATTILA
D29. Actor Edward James ___ ~ OLMOS
D31. Is under the weather ~ AILS
D32. Stretched tight ~ TAUT
D33. Queens stadium ~ SHEA
D34. Magician's opening ~ ABRA
D35. Castle protector ~ MOAT
D36. Choir voice ~ ALTO
D38. Leave the straight and narrow ~ STRAY
D41. Leader's cry, said with a wave ~ FOLLOWME
D42. Where to hang derbies and fedoras ~ HATRACKS
D47. Volvo rival ~ SAAB
D49. "But there ___ joy in Mudville …" ~ ISNO
D51. Look steadily ~ STARE
D53. Itsy-bitsy creature ~ AMEBA
D54. West Pointer ~ CADET
D55. Bonnie's partner in crime ~ CLYDE
D56. Nile slitherers ~ ASPS
D57. Good, close look ~ SCAN
D58. Florence's river ~ ARNO
D60. Walk with difficulty ~ SLOG
D62. Mosque V.I.P. ~ IMAM
D64. Hearing aid ~ EAR
D65. British john ~ LOO

