Title: New York Times, Tuesday, January 10, 2006
Author: David J. Kahn
Editor: Will Shortz
Date: 2006-01-10


ABCS#BALSA#OPTS
DAAE#ICEIN#BRIT
DIVA#CHANDELIER
STEWS#ESE#SAMOA
###ANDREW#STAND
SETTLE###REED##
ASHE#AISLES#OSS
USER#LLOYD#ONTO
LOP#PELLET#UNIT
##HEAR###ALTARS
ADAIR#WEBBER###
GONGS#IVE#NAGAT
OFTHEOPERA#CATS
ROOT#HENRI#ERIK
ARMY#OSTAR#DYES


A1. Basics ~ ABCS
A5. Raft wood ~ BALSA
A10. Goes (for) ~ OPTS
A14. Christine ___ (29-Down's love) ~ DAAE
A15. Leave stranded by a winter storm ~ ICEIN
A16. One who says "I say, old chap" ~ BRIT
A17. See 11-Down ~ DIVA
A18. It crashes in 29-Down/60-Across ~ CHANDELIER
A20. Seethes ~ STEWS
A22. Reverse of WNW ~ ESE
A23. Site of Margaret Mead studies ~ SAMOA
A24. With 40- and 51-Across, composer of 29-Down/60-Across, as well as 63-Across ~ ANDREW
A26. Position ~ STAND
A27. End a suit ~ SETTLE
A30. Oboist's need ~ REED
A31. ___ Stadium, home of the U.S. Open ~ ASHE
A32. Theater areas ~ AISLES
A36. Old spy org. ~ OSS
A39. Addict ~ USER
A40. See 24-Across ~ LLOYD
A41. Aware of ~ ONTO
A42. Slice (off) ~ LOP
A43. Toy gun ammo ~ PELLET
A44. Condo, e.g. ~ UNIT
A45. When repeated, words of agreement ~ HEAR
A47. Communion tables ~ ALTARS
A49. Famed fireman Red ~ ADAIR
A51. See 24-Across ~ WEBBER
A54. Buddhist temple sights ~ GONGS
A55. "___ had it!" ~ IVE
A56. Persistently worry ~ NAGAT
A60. See 29-Down ~ OFTHEOPERA
A63. Longest-running show in Broadway history until 1/9/06 ~ CATS
A64. Cheer (for) ~ ROOT
A65. Painter Matisse ~ HENRI
A66. Real name of 29-Down ~ ERIK
A67. West Point team ~ ARMY
A68. Hot, blue spectral type ~ OSTAR
A69. Salon supplies ~ DYES

D1. Attaches ~ ADDS
D2. Can of worms? ~ BAIT
D3. Spelunking site ~ CAVE
D4. Brine ~ SEAWATER
D5. Pen name ~ BIC
D6. One who's sore ~ ACHER
D7. Place for a renter's signature ~ LEASE
D8. Tendon ~ SINEW
D9. Now ___ then ~ AND
D10. Flattened at the poles ~ OBLATE
D11. Carlotta, in 29-Down/60-Across ~ PRIMADONNA
D12. Fasten, as a ribbon ~ TIEON
D13. Costly strings ~ STRAD
D19. Twisty curves ~ ESSES
D21. NBC fixture since '75 ~ SNL
D25. Casino worker ~ DEALER
D27. Fellow named Bellow ~ SAUL
D28. Petrol provider ~ ESSO
D29. With 60-Across, longest-running show in Broadway history as of 1/9/06 ~ THEPHANTOM
D30. Levi's jeans brand ~ REDTAB
D33. Indisposed ~ ILL
D34. Peruvian money ~ SOL
D35. Soap ingredient ~ LYE
D37. Cookbook direction ~ STIR
D38. Tipplers ~ SOTS
D41. Went faster than ~ OUTRACED
D43. Examine grammatically ~ PARSE
D46. You might get a ticket for doing this ~ EIGHTY
D48. Novelist Deighton ~ LEN
D49. Old marketplace ~ AGORA
D50. Help with ~ DOFOR
D51. Wetnaps, e.g. ~ WIPES
D52. Happening ~ EVENT
D53. Quotable Yogi ~ BERRA
D57. Indiana city near Chicago ~ GARY
D58. Play to ___ ~ ATIE
D59. Sounds of disapproval ~ TSKS
D61. "So there you are!" ~ OHO
D62. Put on TV ~ AIR

