Title: LA Times of May 15, 1996
Author: Ernie Furtado/Trude Michel Jaffe
Copyright: © 1996, LA Times Syndicate
Date: 1996-05-15


ARMED#DENT#SARG
SOAVE#EVER#ERIA
TARES#CATAMARAN
AMERICAN#CAWING
##STRAY#RECASTS
TENSER#TAROT###
AGE#DELAY#NEPAL
LASS#DEMON#RILE
ENTER#VENOM#GOA
###TEPID#DITHER
POSTMAN#RENEE##
ASHLAR#RESONATE
SHEEPSKIN#RUDER
SEAR#OAST#CRETE
EARS#NYES#AEDES


A1. Prepared for combat ~ ARMED
A6. Fender mishap ~ DENT
A10. Puppeteer Tony ~ SARG
A14. Verona white wine ~ SOAVE
A15. "Be it  __ so humble ~ EVER
A16. Silkworm ~ ERIA
A17. Vetches ~ TARES
A18. Feline boat? ~ CATAMARAN
A20. "Gothic" or "Graffiti" ~ AMERICAN
A22. Sounding like a crow ~ CAWING
A23. Get off the beaten path ~ STRAY
A24. Hires new performers ~ RECASTS
A25. More rigid ~ TENSER
A27. Seer's card ~ TAROT
A28. Mature ~ AGE
A29. Procrastinate ~ DELAY
A31. Himalayan nation ~ NEPAL
A35. Glasgow girl ~ LASS
A37. Monster ~ DEMON
A39. Vex ~ RILE
A40. Computer key ~ ENTER
A42. Viper poison ~ VENOM
A44. Tibetan gazelle ~ GOA
A45. Lukewarm ~ TEPID
A47. Flustered excitement ~ DITHER
A49. He "rings twice" ~ POSTMAN
A52. Actress Adoree ~ RENEE
A53. Square building stone ~ ASHLAR
A54. Reinforce oscillations ~ RESONATE
A57. Ovine diploma? ~ SHEEPSKIN
A59. More loutish ~ RUDER
A60. Cauterize ~ SEAR
A61. Kiln ~ OAST
A62. Greek island in the Mediterranean ~ CRETE
A63. Dumbo's "wings" ~ EARS
A64. Carrie and Louis ~ NYES
A65. Mosquito ~ AEDES

D1. Travel agents org ~ ASTA
D2. Wander ~ ROAM
D3. Horse's hoax ~ MARESNEST
D4. Turns inside out ~ EVERTS
D5. Coveted ~ DESIRED
D6. Degenerate ~ DECAY
D7. Author Hunter ~ EVAN
D8. Volleyball barrier ~ NET
D9. Private eye, at times ~ TRACER
D10. Saline liquid ~ SEAWATER
D11. "Mrs   __Goes to Paris" ~ ARRIS
D12. Laughing ~ RIANT
D13. Work groups ~ GANGS
D19. Cen  Georgia city ~ MACON
D21. Was concerned ~ CARED
D24. Artificial fabric ~ RAYON
D25. Saga ~ TALE
D26. Actor Richard ~ EGAN
D27. Domesticated ~ TAMED
D30. Writer Ira or Meyer ~ LEVIN
D32. Topped like a Poland __China? ~ PIGHEADED
D33. Lotion additive ~ ALOE
D34. A Shakespeare king ~ LEAR
D36. Pioneers ~ SETTLERS
D38. Protuberances ~ NODES
D41. Plan anew ~ REMAP
D43. A Belearic island ~ MINORCA
D46. Manse dweller ~ PARSON
D48. Professor's goal ~ TENURE
D49. Antiquated ~ PASSE
D50. Actor Milo ~ OSHEA
D51. Harvest wool ~ SHEAR
D52. Slits ~ RENTS
D54. Stand ~ RISE
D55. Place for a chapeau ~ TETE
D56. Cockneys' roll call eplies ~ ERES
D58. Bandleader Kyser ~ KAY

