Title: No Man Is An Island (Aug 27, 2000)
Author: By Randall Hartman
Copyright: © 2000 L.A. Times Syndicate
Date: 2000-08-27


LEGATE#SEAWATER#PASSE
AMUSER#ULTIMATE#ALOHA
NEATEN#BILLYRAYCYPRUS
ERMINE#WAIT####ASSENT
SYD###PAS##CIDER#####
##ENERGY#BORNEORUBBLE
MALARIA##ABIDES#NARIS
ABUSED#EASESUP#CITIES
HAITISELASSIE#CATHODE
ASSY##VARIES#THREE###
LEE#STATE###FEEDS#AEC
###SHADE#COLORS##ANNO
DIVERGE#MAUIAMSTERDAM
OTITIS#MORTALS#AMERCE
FELON#CAREEN##BRUNETS
FRANKSUMATRA#SEESAW##
#####TEALS##CPA###WAS
AZALEA####SPAR#SAFIRE
SICILYBDEMILLE#ORIGIN
TOTES#AIREDALE#DISHES
ANISE#DEADEYES#SETTLE


A1. Pope's emissary ~ LEGATE
A7. Briny stuff ~ SEAWATER
A15. No longer de rigueur ~ PASSE
A20. Entertainer ~ AMUSER
A21. Maximum ~ ULTIMATE
A22. Hilo hello ~ ALOHA
A23. Straighten up ~ NEATEN
A24. "Achy Breaky Heart" singer? ~ BILLYRAYCYPRUS
A26. Fabulous fur ~ ERMINE
A27. Take table orders ~ WAIT
A28. Concur ~ ASSENT
A29. A Chaplin ~ SYD
A30. Faux ___ ~ PAS
A31. Pome potation ~ CIDER
A35. Part of Einstein's equation ~ ENERGY
A39. Fred Flintstone's pal? ~ BORNEORUBBLE
A46. Swamp fever ~ MALARIA
A48. Goes along with ~ ABIDES
A49. Nostril ~ NARIS
A50. Took advantage of ~ ABUSED
A51. Backs off ~ EASESUP
A53. Metropolitan areas ~ CITIES
A54. Former emperor of Ethiopia? ~ HAITISELASSIE
A56. Battery terminal ~ CATHODE
A57. Meeting: Abbr. ~ ASSY
A58. Modifies ~ VARIES
A59. ___ -dimensional ~ THREE
A60. Robt. E. ___ ~ LEE
A61. Word with hood or house ~ STATE
A63. Nourishes ~ FEEDS
A64. Gp. formed in 1946 ~ AEC
A67. Darken ~ SHADE
A68. Becomes red ~ COLORS
A71. Part of A.D. ~ ANNO
A72. Take a different path ~ DIVERGE
A75. "The Dick Van Dyke Show" costar? ~ MAUIAMSTERDAM
A78. Ear ache ~ OTITIS
A79. Living souls ~ MORTALS
A80. Punish, in a way ~ AMERCE
A81. Lawbreaker ~ FELON
A82. Lurch ~ CAREEN
A83. Brown-haired guys ~ BRUNETS
A84. Ol' Blue Eyes? ~ FRANKSUMATRA
A86. Teetertotter ~ SEESAW
A87. Dabbling ducks ~ TEALS
A88. One concerned with figs. ~ CPA
A89. "I ___ just kidding!" ~ WAS
A92. Showy shrub ~ AZALEA
A97. Bandy words ~ SPAR
A99. Columnist William ~ SAFIRE
A102. Legendary Hollywood film producer? ~ SICILYBDEMILLE
A107. Ancestry ~ ORIGIN
A108. Carryalls ~ TOTES
A109. Type of terrier ~ AIREDALE
A110. Cutie pies ~ DISHES
A111. Liqueur flavoring ~ ANISE
A112. Crack shots ~ DEADEYES
A113. Put down roots ~ SETTLE

D1. Keglers' place ~ LANES
D2. Polishing mineral ~ EMERY
D3. Portly movie comedian? ~ GUAMDELUISE
D4. Italian wine province ~ ASTI
D5. Suffix for 13 to 19 ~ TEEN
D6. Sea eagle ~ ERNE
D7. Commuters' conveyance ~ SUBWAY
D8. Inventor Howe ~ ELIAS
D9. Hun king ~ ATLI
D10. Sag in the sun ~ WILT
D11. Actress Irving ~ AMY
D12. Swabby ~ TAR
D13. LAX abbr. ~ ETA
D14. King of Espana ~ REY
D15. Makes good on a debt ~ PAYS
D16. "The Sound of Music" setting ~ ALPS
D17. Upset ~ SORE
D18. Give the cold shoulder ~ SHUN
D19. 90 degrees on the compass ~ EAST
D25. Chanteuse Vikki ~ CARR
D30. Links org. ~ PGA
D31. Middle-age event, perhaps ~ CRISIS
D32. ___ time: hold your horses ~ INDUE
D33. ___ six: discard ~ DEEP
D34. Dawn goddess ~ EOS
D36. Malicious ~ NASTY
D37. "... ___ saw Elba" ~ EREI
D38. Divests ~ RIDS
D39. Operatic voices ~ BASSI
D40. Corpulent ~ OBESE
D41. Brings together ~ UNITES
D42. Clean up ~ BATHE
D43. Vivacity ~ BRIO
D44. German art song ~ LIED
D45. Actual being ~ ESSE
D46. Taj ___ ~ MAHAL
D47. Humiliate ~ ABASE
D51. Overjoy ~ ELATE
D52. Rhine feeder ~ AARE
D53. Jack, for one ~ CARD
D55. Escape ~ EVADE
D56. Mating game? ~ CHESS
D59. Conditions ~ TERMS
D61. Analyst ~ SHRINK
D62. Labels ~ TAGS
D63. Farm newborn ~ FOAL
D64. Painter of "Christina's World"? ~ ANDREWWIGHT
D65. Legislate ~ ENACT
D66. Emanates (from) ~ COMES
D67. Assail ~ SETON
D68. Editorial inserts ~ CARETS
D69. Farther from center ~ OUTER
D70. Rain forest vine ~ LIANA
D71. Field of competition ~ ARENA
D72. Tip, as one's cap ~ DOFF
D73. Chariot's route ~ ITER
D74. Bob of "Home Again" ~ VILA
D75. Aesop point ~ MORAL
D76. Field weed ~ TARE
D77. Ostrich relatives ~ EMUS
D79. Nursery word ~ MAMA
D82. Guiding suggestion ~ CUE
D83. "___ sport!" ~ BEA
D85. "Don't leave!" ~ STAY
D86. Mall outings ~ SPREES
D88. Sonora street ~ CALLE
D90. Prospero's servant ~ ARIEL
D91. Intuit ~ SENSE
D92. "The Thin Man" pooch ~ ASTA
D93. Utah national park ~ ZION
D94. Broadway beginning ~ ACTI
D95. Whoppers ~ LIES
D96. Otherwise ~ ELSE
D97. Viewpoint ~ SIDE
D98. Frolic ~ PLAY
D99. Lays turf ~ SODS
D100. Indy racer Luyendyk ~ ARIE
D101. Fight starter? ~ FIST
D103. Naughty ~ BAD
D104. Roller in Reno ~ DIE
D105. Mesozoic, for one ~ ERA
D106. Club ___ ~ MED

